Version 4
SHEET 1 1500 1352
WIRE 1360 -160 976 -160
WIRE 1360 -96 1360 -160
WIRE 240 -64 64 -64
WIRE 400 -64 240 -64
WIRE 544 -64 400 -64
WIRE 240 -48 240 -64
WIRE 400 -48 400 -64
WIRE 544 -48 544 -64
WIRE 976 0 976 -160
WIRE 240 64 240 32
WIRE 400 64 400 32
WIRE 544 64 544 32
WIRE 64 80 64 -64
WIRE 1360 80 1360 -16
WIRE 976 240 976 80
WIRE 1152 240 976 240
WIRE 1360 240 1360 144
WIRE 1360 240 1152 240
WIRE 64 272 64 160
WIRE 240 272 240 128
WIRE 240 272 64 272
WIRE 352 272 240 272
WIRE 400 272 400 128
WIRE 400 272 352 272
WIRE 544 272 544 128
WIRE 544 272 400 272
WIRE 352 288 352 272
WIRE 1360 352 976 352
WIRE 1360 416 1360 352
WIRE 976 512 976 352
WIRE 1360 592 1360 496
WIRE 976 752 976 592
WIRE 1152 752 976 752
WIRE 1360 752 1360 656
WIRE 1360 752 1152 752
WIRE 1360 864 976 864
WIRE 1360 928 1360 864
WIRE 976 1024 976 864
WIRE 1360 1104 1360 1008
WIRE 976 1264 976 1104
WIRE 1152 1264 976 1264
WIRE 1360 1264 1360 1168
WIRE 1360 1264 1152 1264
FLAG 352 288 0
FLAG 1152 240 0
FLAG 1152 752 0
FLAG 1152 1264 0
SYMBOL res 224 -64 R0
SYMATTR InstName R1
SYMATTR Value 100
SYMBOL res 384 -64 R0
SYMATTR InstName R2
SYMATTR Value 100
SYMBOL res 528 -64 R0
SYMATTR InstName R3
SYMATTR Value 100
SYMBOL LED 224 64 R0
SYMATTR InstName DRED
SYMATTR Value DR
SYMBOL LED 384 64 R0
SYMATTR InstName DYELLOW
SYMATTR Value DY
SYMBOL LED 528 64 R0
SYMATTR InstName DGREEN
SYMATTR Value DG
SYMBOL voltage 64 64 R0
WINDOW 123 0 0 Left 0
WINDOW 39 0 0 Left 0
SYMATTR InstName V1
SYMATTR Value 5
SYMBOL voltage 976 -16 R0
WINDOW 123 0 0 Left 0
WINDOW 39 24 124 Left 2
SYMATTR InstName V2
SYMATTR Value 5
SYMBOL res 1344 -112 R0
SYMATTR InstName R4
SYMATTR Value 100
SYMBOL LED 1344 80 R0
SYMATTR InstName DRED1
SYMATTR Value DR
SYMBOL voltage 976 496 R0
WINDOW 123 0 0 Left 0
WINDOW 39 24 124 Left 2
SYMATTR InstName V3
SYMATTR Value 5
SYMBOL res 1344 400 R0
SYMATTR InstName R5
SYMATTR Value 100
SYMBOL LED 1344 592 R0
SYMATTR InstName DYELLOW1
SYMATTR Value DY
SYMBOL voltage 976 1008 R0
WINDOW 123 0 0 Left 0
WINDOW 39 24 124 Left 2
SYMATTR InstName V4
SYMATTR Value 5
SYMBOL res 1344 912 R0
SYMATTR InstName R6
SYMATTR Value 100
SYMBOL LED 1344 1104 R0
SYMATTR InstName DGREEN1
SYMATTR Value DG
TEXT 56 312 Left 2 !.MODEL DR D (N=3.73)
TEXT 56 360 Left 2 !.MODEL DY D (N=4.17)
TEXT 56 392 Left 2 !.MODEL DG D (N=4.61)
TEXT 976 288 Left 2 !.MODEL DR D (N=3.73)
TEXT 976 312 Left 2 !;dc V2 0 5 0.01
TEXT 56 336 Left 2 !.dc V1 0 5 0.01
TEXT 976 800 Left 2 !.MODEL DY D (N=4.17)
TEXT 976 824 Left 2 !;dc V3 0 5 0.01
TEXT 976 1312 Left 2 !.MODEL DG D (N=4.61)
TEXT 976 1336 Left 2 !;dc V4 0 5 0.01
