Version 4
SHEET 1 880 680
WIRE 192 -32 192 -64
WIRE 128 16 48 16
WIRE 48 96 48 16
WIRE 192 96 192 64
FLAG 48 176 0
FLAG 192 176 0
FLAG 192 -224 0
SYMBOL voltage 48 80 R0
SYMATTR InstName VI
SYMBOL res 176 80 R0
SYMATTR InstName RE
SYMBOL npn 128 -32 R0
SYMATTR InstName T1
SYMATTR Value BC547B
SYMBOL res 176 -160 R0
SYMATTR InstName RL
SYMBOL voltage 192 -128 R180
WINDOW 0 24 96 Left 2
WINDOW 3 24 16 Left 2
SYMATTR InstName VDD
SYMATTR Value 10
