Version 4
SHEET 1 880 680
WIRE 192 16 128 16
WIRE 272 16 256 16
WIRE 192 48 80 48
WIRE 192 80 192 48
WIRE 128 96 128 16
WIRE 160 96 128 96
WIRE 272 112 272 16
WIRE 272 112 224 112
WIRE 320 112 272 112
WIRE 160 128 16 128
WIRE 128 144 128 96
WIRE 128 240 128 224
WIRE 192 256 192 144
FLAG 128 240 0
FLAG 272 256 0
FLAG 0 48 0
FLAG -64 128 0
FLAG 320 112 Vo
SYMBOL res 112 128 R0
SYMATTR InstName Ri1
SYMATTR Value 10k
SYMBOL voltage 96 48 R90
WINDOW 0 -32 56 VBottom 2
WINDOW 3 32 56 VTop 2
SYMATTR InstName V1
SYMATTR Value 15V
SYMBOL voltage 288 256 R90
WINDOW 0 -32 56 VBottom 2
WINDOW 3 32 56 VTop 2
SYMATTR InstName V2
SYMATTR Value 15V
SYMBOL Opamps\\opamp2 192 48 R0
SYMATTR InstName OP1
SYMATTR Value TL074
SYMBOL voltage 32 128 R90
WINDOW 0 -32 56 VBottom 2
WINDOW 3 32 56 VTop 2
WINDOW 123 0 0 Left 0
WINDOW 39 0 0 Left 0
SYMATTR InstName Vs
SYMATTR Value 5
SYMBOL diode 256 0 R90
WINDOW 0 0 32 VBottom 2
WINDOW 3 32 32 VTop 2
SYMATTR InstName red
TEXT 8 280 Left 2 !.inc TL074.txt
TEXT -84 322 Left 2 !.dc Vs -10V 10V 10mV
TEXT 184 320 Left 2 !.model red D (N=3.73)
