Version 4
SHEET 1 1456 680
WIRE 144 32 64 32
WIRE 272 32 224 32
WIRE 544 32 464 32
WIRE 672 32 624 32
WIRE 944 32 864 32
WIRE 1072 32 1024 32
WIRE 64 112 64 32
WIRE 272 112 272 32
WIRE 464 112 464 32
WIRE 672 112 672 32
WIRE 864 112 864 32
WIRE 1072 112 1072 32
WIRE 64 240 64 192
WIRE 208 240 64 240
WIRE 272 240 272 176
WIRE 272 240 208 240
WIRE 464 240 464 192
WIRE 608 240 464 240
WIRE 672 240 672 176
WIRE 672 240 608 240
WIRE 864 240 864 192
WIRE 1008 240 864 240
WIRE 1072 240 1072 176
WIRE 1072 240 1008 240
FLAG 272 32 Si
FLAG 208 240 0
FLAG 672 32 Schottky
FLAG 608 240 0
FLAG 1072 32 Zener
FLAG 1008 240 0
SYMBOL voltage 64 96 R0
SYMATTR InstName Vi
SYMATTR Value 5
SYMBOL res 240 16 R90
WINDOW 0 0 56 VBottom 2
WINDOW 3 32 56 VTop 2
SYMATTR InstName RD
SYMATTR Value 200
SYMBOL diode 256 112 R0
SYMATTR InstName D
SYMATTR Value 1N4148
SYMBOL voltage 464 96 R0
SYMATTR InstName Vi1
SYMATTR Value 5
SYMBOL res 640 16 R90
WINDOW 0 0 56 VBottom 2
WINDOW 3 32 56 VTop 2
SYMATTR InstName RD1
SYMATTR Value 200
SYMBOL zener 656 112 R0
SYMATTR InstName D1
SYMATTR Value BAT41
SYMATTR Prefix X
SYMBOL voltage 864 96 R0
SYMATTR InstName Vi2
SYMATTR Value 5
SYMBOL res 1040 16 R90
WINDOW 0 0 56 VBottom 2
WINDOW 3 32 56 VTop 2
SYMATTR InstName RD2
SYMATTR Value 200
SYMBOL schottky 1056 112 R0
SYMATTR InstName D2
SYMATTR Value ZD3V9
SYMATTR Prefix X
TEXT 30 254 Left 2 !.dc Vi -5 5 .01
TEXT 88 304 Left 2 !.inclue BAT41.txt
TEXT 96 344 Left 2 !.inc ZD3V9.txt
