Version 4
SHEET 1 1272 680
WIRE 272 -128 96 -128
WIRE 688 -128 512 -128
WIRE 1088 -128 912 -128
WIRE 272 -96 272 -128
WIRE 688 -96 688 -128
WIRE 1088 -96 1088 -128
WIRE 96 -48 96 -128
WIRE 512 -48 512 -128
WIRE 912 -48 912 -128
WIRE 272 16 272 -16
WIRE 688 16 688 -16
WIRE 1088 16 1088 -16
WIRE 96 112 96 32
WIRE 112 112 96 112
WIRE 272 112 272 80
WIRE 272 112 112 112
WIRE 512 112 512 32
WIRE 528 112 512 112
WIRE 688 112 688 80
WIRE 688 112 528 112
WIRE 912 112 912 32
WIRE 928 112 912 112
WIRE 1088 112 1088 80
WIRE 1088 112 928 112
FLAG 112 112 0
FLAG 528 112 0
FLAG 928 112 0
SYMBOL voltage 96 -64 R0
SYMATTR InstName Vs
SYMATTR Value 5
SYMBOL res 256 -112 R0
SYMATTR InstName R
SYMATTR Value 100
SYMBOL diode 256 16 R0
SYMATTR InstName D
SYMBOL voltage 512 -64 R0
SYMATTR InstName Vs1
SYMATTR Value 5
SYMBOL res 672 -112 R0
SYMATTR InstName R1
SYMATTR Value 100
SYMBOL diode 672 16 R0
SYMATTR InstName D1
SYMBOL voltage 912 -64 R0
SYMATTR InstName Vs2
SYMATTR Value 5
SYMBOL res 1072 -112 R0
SYMATTR InstName R2
SYMATTR Value 100
SYMBOL diode 1072 16 R0
SYMATTR InstName D2
TEXT 128 136 Left 2 !.MODEL led-name D (N=3.73)
TEXT 136 160 Left 2 ;Change Model-Name here
TEXT 96 200 Left 2 ;red N=3.73, yellow N= 4.17, green N=4.61
TEXT 62 220 Left 2 !.dc Vs 0 5 .01
